/*--------------------------------*- C++ -*----------------------------------*\
  =========                 |
  \\      /  F ield         | OpenFOAM: The Open Source CFD Toolbox
   \\    /   O peration     | Website:  https://openfoam.org
    \\  /    A nd           | Version:  13
     \\/     M anipulation  |
\*---------------------------------------------------------------------------*/
FoamFile
{
    format      ascii;
    class       volVectorField;
    object      U;
}
// * * * * * * * * * * * * * * * * * * * * * * * * * * * * * * * * * * * * * //

#include "../constant/simParams"

// Cálculos trigonométricos
angle           #calc "-degToRad($angleVal)";
#calcInclude    "transform.H"
liftDir         #calc "transform(Ry($angle), vector(0, 0, 1))";
dragDir         #calc "transform(Ry($angle), vector(1, 0, 0))";
Uinlet          #calc "$speedVal*$<vector>dragDir";

dimensions      [0 1 -1 0 0 0 0];
internalField   uniform $Uinlet;

boundaryField
{
    // Nombre exacto en blockMeshDict. 
    // IMPORTANTE: 'slip' porque es flujo no viscoso.
    aerofoil
    {
        type            slip; 
    }

    inlet
    {
        type            freestreamVelocity;
        freestreamValue uniform $Uinlet;
        value           uniform $Uinlet;
    }

    outlet
    {
        type            freestreamVelocity;
        freestreamValue uniform $Uinlet;
        value           uniform $Uinlet;
    }

    front
    {
        type            empty;
    }
    back
    {
        type            empty;
    }
}
// ************************************************************************* //