/*--------------------------------*- C++ -*----------------------------------*\
  =========                 |
  \\      /  F ield         | OpenFOAM: The Open Source CFD Toolbox
   \\    /   O peration     | Website:  https://openfoam.org
    \\  /    A nd           | Version:  13
     \\/     M anipulation  |
\*---------------------------------------------------------------------------*/
FoamFile
{
    format      ascii;
    class       volVectorField;
    object      U;
}
// * * * * * * * * * * * * * * * * * * * * * * * * * * * * * * * * * * * * * //

#include "../constant/simParams"

angle           #calc "-degToRad($angleVal)";
#calcInclude    "transform.H"
liftDir         #calc "transform(Ry($angle), vector(0, 0, 1))";
dragDir         #calc "transform(Ry($angle), vector(1, 0, 0))";
Uinlet          #calc "$speedVal*$<vector>dragDir";

dimensions      [0 1 -1 0 0 0 0];

internalField   uniform $Uinlet;

boundaryField
{
    // Coincide con blockMeshDict: aerofoil
    aerofoil
    {
        type            slip; // OBLIGATORIO para inviscid
    }

    // Coincide con blockMeshDict: inlet
    inlet
    {
        type            freestreamVelocity;
        freestreamValue uniform $Uinlet;
        value           uniform $Uinlet;
    }

    // Coincide con blockMeshDict: outlet
    outlet
    {
        type            freestreamVelocity;
        freestreamValue uniform $Uinlet;
        value           uniform $Uinlet;
    }

    frontAndBack
    {
        type            empty;
    }
}
// ************************************************************************* //